/*--------------------------------*- C++ -*----------------------------------*\
| =========                 |                                                 |
| \\      /  F ield         | OpenFOAM: The Open Source CFD Toolbox           |
|  \\    /   O peration     | Version:  dev                                   |
|   \\  /    A nd           | Web:      www.OpenFOAM.org                      |
|    \\/     M anipulation  |                                                 |
\*---------------------------------------------------------------------------*/
FoamFile
{
    version     2.0;
    format      ascii;
    class       dictionary;
    location    "system";
    object      fvSchemes;
}
// * * * * * * * * * * * * * * * * * * * * * * * * * * * * * * * * * * * * * //

unsteady	    true;

inviscid	    false;

preconditioning	    true;

ddtSchemes
{
    default         none;
    ddt(p)	    localEuler;
    ddt(U)	    localEuler;
    ddt(e)	    localEuler;
}

gradSchemes
{
    default         Gauss linear;
}

divSchemes
{
    default         none;
    div(tauMC)      Gauss linear;
}

laplacianSchemes
{
    default         Gauss linear corrected;

    laplacian(diffusivity,cellMotionU) Gauss linear uncorrected;
}

interpolationSchemes
{
    default         linear;
    reconstruct(p)  vanLeer;
    reconstruct(U)  vanLeerV;
    reconstruct(T)  vanLeer;
}

snGradSchemes
{
    default         corrected;
}

wallDist
{
    method	    meshWave;
}

// ************************************************************************* //
